<?xml version="1.0" encoding="UTF-8"?>

<!-- generated on 2025-05-29 16:04:13 by Eclipse SUMO netedit Version 1.21.0
<neteditConfiguration xmlns:xsi="http://www.w3.org/2001/XMLSchema-instance" xsi:noNamespaceSchemaLocation="http://sumo.dlr.de/xsd/neteditConfiguration.xsd">

    <input>
        <sumo-net-file value="/home/ifini/mei/npr/mosaic-apps/G3App/g3app/sumo/g3app.net.xml"/>
    </input>

    <output>
        <output-file value="/home/ifini/mei/npr/mosaic-apps/G3App/g3app/sumo/g3app.net.xml"/>
    </output>

    <processing>
        <geometry.min-radius.fix.railways value="false"/>
        <geometry.max-grade.fix value="false"/>
        <offset.disable-normalization value="true"/>
        <lefthand value="0"/>
    </processing>

    <junctions>
        <no-turnarounds value="true"/>
        <junctions.corner-detail value="5"/>
        <junctions.limit-turn-speed value="5.50"/>
        <rectangular-lane-cut value="0"/>
    </junctions>

    <pedestrian>
        <walkingareas value="0"/>
    </pedestrian>

</neteditConfiguration>
-->

<net version="1.20" junctionCornerDetail="5" limitTurnSpeed="5.50" xmlns:xsi="http://www.w3.org/2001/XMLSchema-instance" xsi:noNamespaceSchemaLocation="http://sumo.dlr.de/xsd/net_file.xsd">

    <location netOffset="-548846.94,-4599882.04" convBoundary="143.97,152.79,1419.44,1048.90" origBoundary="-8.414227,41.547668,-8.391687,41.561310" projParameter="+proj=utm +zone=29 +ellps=WGS84 +datum=WGS84 +units=m +no_defs"/>

    <type id="highway.cycleway" priority="1" numLanes="1" speed="5.56" allow="bicycle" oneway="0" width="2.00"/>
    <type id="highway.primary" priority="12" numLanes="2" speed="27.78" disallow="tram rail_urban rail rail_electric rail_fast ship container cable_car subway aircraft wheelchair scooter drone" oneway="0"/>
    <type id="highway.primary_link" priority="7" numLanes="1" speed="22.22" disallow="tram rail_urban rail rail_electric rail_fast ship container cable_car subway aircraft wheelchair scooter drone" oneway="0"/>
    <type id="highway.residential" priority="3" numLanes="1" speed="13.89" disallow="tram rail_urban rail rail_electric rail_fast ship container cable_car subway aircraft wheelchair scooter drone" oneway="0"/>
    <type id="highway.secondary" priority="11" numLanes="1" speed="27.78" disallow="tram rail_urban rail rail_electric rail_fast ship container cable_car subway aircraft wheelchair scooter drone" oneway="0"/>
    <type id="highway.service" priority="1" numLanes="1" speed="5.56" allow="pedestrian delivery bicycle" oneway="0"/>
    <type id="highway.tertiary" priority="10" numLanes="1" speed="22.22" disallow="tram rail_urban rail rail_electric rail_fast ship container cable_car subway aircraft wheelchair scooter drone" oneway="0"/>
    <type id="highway.trunk" priority="13" numLanes="2" speed="27.78" disallow="pedestrian bicycle tram rail_urban rail rail_electric rail_fast ship container cable_car subway aircraft wheelchair scooter drone" oneway="0"/>
    <type id="highway.trunk_link" priority="8" numLanes="1" speed="22.22" disallow="pedestrian bicycle tram rail_urban rail rail_electric rail_fast ship container cable_car subway aircraft wheelchair scooter drone" oneway="0"/>

    <edge id=":1107488562_0" function="internal">
        <lane id=":1107488562_0_0" index="0" disallow="tram rail_urban rail rail_electric rail_fast ship container cable_car subway aircraft wheelchair scooter drone" speed="13.89" length="0.44" shape="625.03,373.18 625.05,373.31"/>
        <lane id=":1107488562_0_1" index="1" disallow="tram rail_urban rail rail_electric rail_fast ship container cable_car subway aircraft wheelchair scooter drone" speed="13.89" length="0.44" shape="625.63,376.32 624.91,376.51"/>
    </edge>
    <edge id=":11370936366_0" function="internal">
        <lane id=":11370936366_0_0" index="0" disallow="pedestrian tram rail_urban rail rail_electric rail_fast ship container cable_car subway aircraft wheelchair scooter drone" speed="27.78" length="1.40" shape="1367.99,1036.11 1369.39,1036.02"/>
    </edge>
    <edge id=":11763515784_0" function="internal">
        <lane id=":11763515784_0_0" index="0" disallow="tram rail_urban rail rail_electric rail_fast ship container cable_car subway aircraft wheelchair scooter drone" speed="27.78" length="0.46" shape="1372.67,870.59 1372.66,870.52 1372.65,870.47 1372.64,870.43 1372.63,870.36"/>
        <lane id=":11763515784_0_1" index="1" disallow="tram rail_urban rail rail_electric rail_fast ship container cable_car subway aircraft wheelchair scooter drone" speed="27.78" length="0.46" shape="1375.85,870.31 1375.84,870.11 1375.82,869.97 1375.79,869.83 1375.75,869.63"/>
    </edge>
    <edge id=":11763515785_0" function="internal">
        <lane id=":11763515785_0_0" index="0" disallow="tram rail_urban rail rail_electric rail_fast ship container cable_car subway aircraft wheelchair scooter drone" speed="27.78" length="0.10" shape="1388.35,873.17 1388.40,873.10"/>
        <lane id=":11763515785_0_1" index="1" disallow="tram rail_urban rail rail_electric rail_fast ship container cable_car subway aircraft wheelchair scooter drone" speed="27.78" length="0.10" shape="1385.77,871.27 1385.72,871.34"/>
    </edge>
    <edge id=":11766441124_0" function="internal">
        <lane id=":11766441124_0_0" index="0" disallow="tram rail_urban rail rail_electric rail_fast ship container cable_car subway aircraft wheelchair scooter drone" speed="13.89" length="0.10" shape="413.52,513.19 413.52,513.19"/>
    </edge>
    <edge id=":11766441124_1" function="internal">
        <lane id=":11766441124_1_0" index="0" disallow="tram rail_urban rail rail_electric rail_fast ship container cable_car subway aircraft wheelchair scooter drone" speed="13.89" length="0.10" shape="415.14,510.43 415.14,510.43"/>
    </edge>
    <edge id=":1205623110_0" function="internal">
        <lane id=":1205623110_0_0" index="0" disallow="pedestrian tram rail_urban rail rail_electric rail_fast ship container cable_car subway aircraft wheelchair scooter drone" speed="27.78" length="0.44" shape="1349.44,1024.38 1349.38,1024.27 1349.34,1024.19 1349.31,1024.10 1349.27,1023.98"/>
    </edge>
    <edge id=":1205623118_0" function="internal">
        <lane id=":1205623118_0_0" index="0" disallow="tram rail_urban rail rail_electric rail_fast ship container cable_car subway aircraft wheelchair scooter drone" speed="27.78" length="18.97" shape="1384.27,994.57 1386.84,1013.37"/>
    </edge>
    <edge id=":1205623118_1" function="internal">
        <lane id=":1205623118_1_0" index="0" disallow="pedestrian tram rail_urban rail rail_electric rail_fast ship container cable_car subway aircraft wheelchair scooter drone" speed="11.70" length="19.54" shape="1375.61,998.55 1379.65,1000.53 1382.87,1003.66 1385.26,1007.94 1386.84,1013.37"/>
    </edge>
    <edge id=":1205623141_0" function="internal">
        <lane id=":1205623141_0_0" index="0" disallow="tram rail_urban rail rail_electric rail_fast ship container cable_car subway aircraft wheelchair scooter drone" speed="13.89" length="0.34" shape="1419.73,819.04 1419.78,819.18 1419.82,819.27 1419.84,819.37 1419.88,819.52"/>
        <lane id=":1205623141_0_1" index="1" disallow="tram rail_urban rail rail_electric rail_fast ship container cable_car subway aircraft wheelchair scooter drone" speed="13.89" length="0.34" shape="1416.73,820.15 1416.75,820.20 1416.76,820.23 1416.77,820.26 1416.78,820.31"/>
    </edge>
    <edge id=":1300547751_0" function="internal">
        <lane id=":1300547751_0_0" index="0" disallow="tram rail_urban rail rail_electric rail_fast ship container cable_car subway aircraft wheelchair scooter drone" speed="6.08" length="7.52" shape="545.55,636.93 545.06,638.92 544.05,640.30 542.53,641.08 540.48,641.24"/>
    </edge>
    <edge id=":1300547751_1" function="internal">
        <lane id=":1300547751_1_0" index="0" disallow="tram rail_urban rail rail_electric rail_fast ship container cable_car subway aircraft wheelchair scooter drone" speed="3.65" length="4.67" shape="545.55,636.93 544.63,638.04 543.80,638.36 543.04,637.88 542.36,636.61"/>
    </edge>
    <edge id=":1300547751_2" function="internal">
        <lane id=":1300547751_2_0" index="0" disallow="tram rail_urban rail rail_electric rail_fast ship container cable_car subway aircraft wheelchair scooter drone" speed="3.91" length="2.51" shape="540.67,638.05 541.36,637.99 541.86,637.74 542.20,637.27 542.36,636.61"/>
    </edge>
    <edge id=":1300547751_3" function="internal">
        <lane id=":1300547751_3_0" index="0" disallow="tram rail_urban rail rail_electric rail_fast ship container cable_car subway aircraft wheelchair scooter drone" speed="3.65" length="4.67" shape="540.67,638.05 541.83,638.92 542.18,639.74 541.73,640.52 540.48,641.24"/>
    </edge>
    <edge id=":1300547754_0" function="internal">
        <lane id=":1300547754_0_0" index="0" disallow="pedestrian bicycle tram rail_urban rail rail_electric rail_fast ship container cable_car subway aircraft wheelchair scooter drone" speed="19.44" length="0.29" shape="635.25,415.94 635.20,416.21"/>
        <lane id=":1300547754_0_1" index="1" disallow="pedestrian bicycle tram rail_urban rail rail_electric rail_fast ship container cable_car subway aircraft wheelchair scooter drone" speed="19.44" length="0.29" shape="632.10,415.37 632.05,415.68"/>
    </edge>
    <edge id=":1366655625_0" function="internal">
        <lane id=":1366655625_0_0" index="0" disallow="pedestrian bicycle tram rail_urban rail rail_electric rail_fast ship container cable_car subway aircraft wheelchair scooter drone" speed="19.44" length="0.30" shape="622.40,428.77 622.44,428.46"/>
        <lane id=":1366655625_0_1" index="1" disallow="pedestrian bicycle tram rail_urban rail rail_electric rail_fast ship container cable_car subway aircraft wheelchair scooter drone" speed="19.44" length="0.30" shape="625.56,429.25 625.60,428.96"/>
    </edge>
    <edge id=":1462982174_0" function="internal">
        <lane id=":1462982174_0_0" index="0" disallow="pedestrian tram rail_urban rail rail_electric rail_fast ship container cable_car subway aircraft wheelchair scooter drone" speed="7.09" length="10.88" shape="203.42,156.81 205.43,154.01 207.56,152.41 209.80,152.00 212.16,152.78"/>
        <lane id=":1462982174_0_1" index="1" disallow="pedestrian tram rail_urban rail rail_electric rail_fast ship container cable_car subway aircraft wheelchair scooter drone" speed="6.26" length="8.26" shape="203.42,156.81 204.73,155.23 206.36,154.49 208.31,154.60 210.57,155.56"/>
        <lane id=":1462982174_0_2" index="2" disallow="pedestrian tram rail_urban rail rail_electric rail_fast ship container cable_car subway aircraft wheelchair scooter drone" speed="5.48" length="6.08" shape="203.42,156.81 204.03,156.44 205.17,156.57 206.82,157.20 208.99,158.34"/>
    </edge>
    <edge id=":1462982179_0" function="internal">
        <lane id=":1462982179_0_0" index="0" disallow="tram rail_urban rail rail_electric rail_fast ship container cable_car subway aircraft wheelchair scooter drone" speed="13.89" length="0.30" shape="190.01,355.58 189.89,355.86"/>
    </edge>
    <edge id=":1563682559_0" function="internal">
        <lane id=":1563682559_0_0" index="0" disallow="tram rail_urban rail rail_electric rail_fast ship container cable_car subway aircraft wheelchair scooter drone" speed="13.89" length="0.30" shape="307.00,206.34 307.26,206.49"/>
        <lane id=":1563682559_0_1" index="1" disallow="tram rail_urban rail rail_electric rail_fast ship container cable_car subway aircraft wheelchair scooter drone" speed="13.89" length="0.30" shape="305.44,209.14 305.70,209.28"/>
        <lane id=":1563682559_0_2" index="2" disallow="tram rail_urban rail rail_electric rail_fast ship container cable_car subway aircraft wheelchair scooter drone" speed="13.89" length="0.30" shape="303.88,211.93 304.14,212.08"/>
    </edge>
    <edge id=":1563705266_0" function="internal">
        <lane id=":1563705266_0_0" index="0" disallow="tram rail_urban rail rail_electric rail_fast ship container cable_car subway aircraft wheelchair scooter drone" speed="13.89" length="0.10" shape="1087.79,646.46 1087.79,646.46"/>
        <lane id=":1563705266_0_1" index="1" disallow="tram rail_urban rail rail_electric rail_fast ship container cable_car subway aircraft wheelchair scooter drone" speed="13.89" length="0.10" shape="1086.21,649.25 1086.21,649.25"/>
        <lane id=":1563705266_0_2" index="2" disallow="tram rail_urban rail rail_electric rail_fast ship container cable_car subway aircraft wheelchair scooter drone" speed="13.89" length="0.10" shape="1084.63,652.04 1084.63,652.04"/>
    </edge>
    <edge id=":1563705268_0" function="internal">
        <lane id=":1563705268_0_0" index="0" disallow="tram rail_urban rail rail_electric rail_fast ship container cable_car subway aircraft wheelchair scooter drone" speed="13.89" length="0.30" shape="1114.36,661.49 1114.63,661.65"/>
        <lane id=":1563705268_0_1" index="1" disallow="tram rail_urban rail rail_electric rail_fast ship container cable_car subway aircraft wheelchair scooter drone" speed="13.89" length="0.30" shape="1112.78,664.28 1113.04,664.42"/>
        <lane id=":1563705268_0_2" index="2" disallow="tram rail_urban rail rail_electric rail_fast ship container cable_car subway aircraft wheelchair scooter drone" speed="13.89" length="0.30" shape="1111.20,667.06 1111.45,667.20"/>
    </edge>
    <edge id=":1763936676_0" function="internal">
        <lane id=":1763936676_0_0" index="0" disallow="tram rail_urban rail rail_electric rail_fast ship container cable_car subway aircraft wheelchair scooter drone" speed="27.78" length="0.30" shape="357.44,253.81 357.16,253.65"/>
        <lane id=":1763936676_0_1" index="1" disallow="tram rail_urban rail rail_electric rail_fast ship container cable_car subway aircraft wheelchair scooter drone" speed="27.78" length="0.30" shape="358.99,251.01 358.73,250.87"/>
        <lane id=":1763936676_0_2" index="2" disallow="tram rail_urban rail rail_electric rail_fast ship container cable_car subway aircraft wheelchair scooter drone" speed="27.78" length="0.30" shape="360.54,248.21 360.30,248.08"/>
    </edge>
    <edge id=":1818310290_0" function="internal">
        <lane id=":1818310290_0_0" index="0" disallow="tram rail_urban rail rail_electric rail_fast ship container cable_car subway aircraft wheelchair scooter drone" speed="27.78" length="0.28" shape="400.13,277.43 399.95,277.33"/>
        <lane id=":1818310290_0_1" index="1" disallow="tram rail_urban rail rail_electric rail_fast ship container cable_car subway aircraft wheelchair scooter drone" speed="27.78" length="0.28" shape="401.72,274.65 401.48,274.51"/>
        <lane id=":1818310290_0_2" index="2" disallow="tram rail_urban rail rail_electric rail_fast ship container cable_car subway aircraft wheelchair scooter drone" speed="27.78" length="0.28" shape="403.31,271.87 403.01,271.70"/>
    </edge>
    <edge id=":1818310319_0" function="internal">
        <lane id=":1818310319_0_0" index="0" disallow="tram rail_urban rail rail_electric rail_fast ship container cable_car subway aircraft wheelchair scooter drone" speed="27.78" length="0.30" shape="447.20,304.32 446.96,304.18"/>
        <lane id=":1818310319_0_1" index="1" disallow="tram rail_urban rail rail_electric rail_fast ship container cable_car subway aircraft wheelchair scooter drone" speed="27.78" length="0.30" shape="448.81,301.55 448.55,301.41"/>
        <lane id=":1818310319_0_2" index="2" disallow="tram rail_urban rail rail_electric rail_fast ship container cable_car subway aircraft wheelchair scooter drone" speed="27.78" length="0.30" shape="450.41,298.79 450.14,298.63"/>
    </edge>
    <edge id=":1904480252_0" function="internal">
        <lane id=":1904480252_0_0" index="0" allow="bus bicycle" speed="13.89" length="0.30" shape="322.97,513.76 322.74,513.57"/>
    </edge>
    <edge id=":1904480252_1" function="internal">
        <lane id=":1904480252_1_0" index="0" allow="bus bicycle" speed="3.65" length="2.34" shape="322.97,513.76 322.53,512.38 322.72,511.51"/>
    </edge>
    <edge id=":1904480252_3" function="internal">
        <lane id=":1904480252_3_0" index="0" allow="bus bicycle" speed="3.65" length="2.34" shape="322.72,511.51 323.53,511.13 324.96,511.25"/>
    </edge>
    <edge id=":1904480252_2" function="internal">
        <lane id=":1904480252_2_0" index="0" disallow="tram rail_urban rail rail_electric rail_fast ship container cable_car subway aircraft wheelchair scooter drone" speed="13.89" length="0.30" shape="324.73,511.06 324.96,511.25"/>
    </edge>
    <edge id=":1920184385_0" function="internal">
        <lane id=":1920184385_0_0" index="0" disallow="tram rail_urban rail rail_electric rail_fast ship container cable_car subway aircraft wheelchair scooter drone" speed="13.89" length="0.29" shape="218.21,287.42 218.10,287.69"/>
    </edge>
    <edge id=":2057980934_0" function="internal">
        <lane id=":2057980934_0_0" index="0" disallow="tram rail_urban rail rail_electric rail_fast ship container cable_car subway aircraft wheelchair scooter drone" speed="13.89" length="0.30" shape="355.03,471.55 354.79,471.36"/>
    </edge>
    <edge id=":2057980934_1" function="internal">
        <lane id=":2057980934_1_0" index="0" disallow="tram rail_urban rail rail_electric rail_fast ship container cable_car subway aircraft wheelchair scooter drone" speed="13.89" length="0.30" shape="356.79,468.87 357.03,469.05"/>
    </edge>
    <edge id=":2065718099_0" function="internal">
        <lane id=":2065718099_0_0" index="0" disallow="pedestrian bicycle tram rail_urban rail rail_electric rail_fast ship container cable_car subway aircraft wheelchair scooter drone" speed="13.89" length="0.46" shape="648.51,432.40 648.48,432.54 648.46,432.63 648.43,432.71 648.37,432.84"/>
    </edge>
    <edge id=":2065718102_0" function="internal">
        <lane id=":2065718102_0_0" index="0" disallow="pedestrian tram rail_urban rail rail_electric rail_fast ship container cable_car subway aircraft wheelchair scooter drone" speed="13.89" length="0.10" shape="610.74,366.85 610.82,366.88"/>
        <lane id=":2065718102_0_1" index="1" disallow="pedestrian tram rail_urban rail rail_electric rail_fast ship container cable_car subway aircraft wheelchair scooter drone" speed="13.89" length="0.10" shape="609.98,369.97 609.90,369.94"/>
    </edge>
    <edge id=":2065718103_0" function="internal">
        <lane id=":2065718103_0_0" index="0" disallow="pedestrian bicycle tram rail_urban rail rail_electric rail_fast ship container cable_car subway aircraft wheelchair scooter drone" speed="13.89" length="0.28" shape="609.30,422.51 609.29,422.47 609.29,422.44 609.28,422.42 609.27,422.38"/>
        <lane id=":2065718103_0_1" index="1" disallow="pedestrian bicycle tram rail_urban rail rail_electric rail_fast ship container cable_car subway aircraft wheelchair scooter drone" speed="13.89" length="0.28" shape="612.46,422.02 612.44,421.90 612.43,421.82 612.41,421.73 612.38,421.61"/>
    </edge>
    <edge id=":2065718104_0" function="internal">
        <lane id=":2065718104_0_0" index="0" disallow="pedestrian tram rail_urban rail rail_electric rail_fast ship container cable_car subway aircraft wheelchair scooter drone" speed="13.89" length="0.40" shape="597.40,399.39 597.29,399.34 597.22,399.29 597.16,399.25 597.07,399.17"/>
    </edge>
    <edge id=":211316924_0" function="internal">
        <lane id=":211316924_0_0" index="0" allow="bus bicycle" speed="18.05" length="10.49" shape="172.09,410.79 162.71,406.09"/>
    </edge>
    <edge id=":211316924_1" function="internal">
        <lane id=":211316924_1_0" index="0" allow="bus bicycle" speed="3.65" length="1.44" shape="172.09,410.79 171.40,409.52"/>
    </edge>
    <edge id=":211316924_6" function="internal">
        <lane id=":211316924_6_0" index="0" allow="bus bicycle" speed="3.65" length="3.23" shape="171.40,409.52 171.42,408.63 172.14,408.10 173.58,407.95"/>
    </edge>
    <edge id=":211316924_2" function="internal">
        <lane id=":211316924_2_0" index="0" disallow="tram rail_urban rail rail_electric rail_fast ship container cable_car subway aircraft wheelchair scooter drone" speed="6.56" length="8.72" shape="171.12,400.60 170.46,402.90 170.65,404.90 171.69,406.58 173.58,407.95"/>
    </edge>
    <edge id=":211316924_3" function="internal">
        <lane id=":211316924_3_0" index="0" disallow="tram rail_urban rail rail_electric rail_fast ship container cable_car subway aircraft wheelchair scooter drone" speed="7.15" length="11.36" shape="171.12,400.60 169.29,403.89 167.28,405.90 165.09,406.63 162.71,406.09"/>
    </edge>
    <edge id=":211316924_4" function="internal">
        <lane id=":211316924_4_0" index="0" disallow="tram rail_urban rail rail_electric rail_fast ship container cable_car subway aircraft wheelchair scooter drone" speed="18.05" length="10.61" shape="164.09,403.20 173.58,407.95"/>
    </edge>
    <edge id=":211316924_5" function="internal">
        <lane id=":211316924_5_0" index="0" disallow="tram rail_urban rail rail_electric rail_fast ship container cable_car subway aircraft wheelchair scooter drone" speed="3.65" length="1.44" shape="164.09,403.20 164.82,404.44"/>
    </edge>
    <edge id=":211316924_7" function="internal">
        <lane id=":211316924_7_0" index="0" disallow="tram rail_urban rail rail_electric rail_fast ship container cable_car subway aircraft wheelchair scooter drone" speed="3.65" length="3.23" shape="164.82,404.44 164.84,405.34 164.13,405.89 162.71,406.09"/>
    </edge>
    <edge id=":211327592_0" function="internal">
        <lane id=":211327592_0_0" index="0" disallow="tram rail_urban rail rail_electric rail_fast ship container cable_car subway aircraft wheelchair scooter drone" speed="6.63" length="8.95" shape="513.12,639.62 510.72,639.82 508.91,640.74 507.68,642.39 507.05,644.77"/>
    </edge>
    <edge id=":211327592_1" function="internal">
        <lane id=":211327592_1_0" index="0" allow="bus bicycle" speed="13.89" length="14.04" shape="513.12,639.62 509.52,639.37 506.12,639.05 502.72,638.64 499.16,638.14"/>
    </edge>
    <edge id=":211327592_2" function="internal">
        <lane id=":211327592_2_0" index="0" disallow="tram rail_urban rail rail_electric rail_fast ship container cable_car subway aircraft wheelchair scooter drone" speed="3.65" length="1.44" shape="513.12,639.62 511.97,638.75"/>
    </edge>
    <edge id=":211327592_9" function="internal">
        <lane id=":211327592_9_0" index="0" disallow="tram rail_urban rail rail_electric rail_fast ship container cable_car subway aircraft wheelchair scooter drone" speed="3.65" length="3.23" shape="511.97,638.75 511.61,637.92 512.06,637.15 513.31,636.42"/>
    </edge>
    <edge id=":211327592_3" function="internal">
        <lane id=":211327592_3_0" index="0" disallow="tram rail_urban rail rail_electric rail_fast ship container cable_car subway aircraft wheelchair scooter drone" speed="13.89" length="13.75" shape="499.64,634.97 503.16,635.48 506.45,635.87 509.76,636.18 513.31,636.42"/>
    </edge>
    <edge id=":211327592_4" function="internal">
        <lane id=":211327592_4_0" index="0" disallow="tram rail_urban rail rail_electric rail_fast ship container cable_car subway aircraft wheelchair scooter drone" speed="8.01" length="3.93" shape="499.64,634.97 503.28,636.07 503.38,636.15"/>
    </edge>
    <edge id=":211327592_5" function="internal">
        <lane id=":211327592_5_0" index="0" allow="bus bicycle" speed="3.65" length="1.44" shape="499.64,634.97 500.71,635.94"/>
    </edge>
    <edge id=":211327592_10" function="internal">
        <lane id=":211327592_10_0" index="0" disallow="tram rail_urban rail rail_electric rail_fast ship container cable_car subway aircraft wheelchair scooter drone" speed="8.01" length="9.99" shape="503.38,636.15 505.73,638.07 506.98,640.96 507.05,644.77"/>
    </edge>
    <edge id=":211327592_11" function="internal">
        <lane id=":211327592_11_0" index="0" allow="bus bicycle" speed="3.65" length="3.23" shape="500.71,635.94 500.98,636.80 500.46,637.53 499.16,638.14"/>
    </edge>
    <edge id=":211327592_6" function="internal">
        <lane id=":211327592_6_0" index="0" allow="bus bicycle" speed="6.51" length="8.86" shape="503.87,644.37 503.83,641.95 503.03,640.10 501.47,638.83 499.16,638.14"/>
    </edge>
    <edge id=":211327592_7" function="internal">
        <lane id=":211327592_7_0" index="0" disallow="tram rail_urban rail rail_electric rail_fast ship container cable_car subway aircraft wheelchair scooter drone" speed="8.11" length="13.87" shape="503.87,644.37 504.86,640.70 506.76,638.16 509.57,636.73 513.31,636.42"/>
    </edge>
    <edge id=":211327592_8" function="internal">
        <lane id=":211327592_8_0" index="0" disallow="tram rail_urban rail rail_electric rail_fast ship container cable_car subway aircraft wheelchair scooter drone" speed="3.65" length="4.67" shape="503.87,644.37 504.81,643.28 505.66,642.98 506.40,643.48 507.05,644.77"/>
    </edge>
    <edge id=":211328739_0" function="internal">
        <lane id=":211328739_0_0" index="0" allow="bus bicycle" speed="13.89" length="0.60" shape="458.81,621.31 458.66,621.22 458.55,621.16 458.45,621.09 458.31,620.98"/>
    </edge>
    <edge id=":211328739_1" function="internal">
        <lane id=":211328739_1_0" index="0" disallow="tram rail_urban rail rail_electric rail_fast ship container cable_car subway aircraft wheelchair scooter drone" speed="13.89" length="0.20" shape="460.23,618.42 460.28,618.46 460.31,618.48 460.35,618.50 460.40,618.53"/>
    </edge>
    <edge id=":211334531_0" function="internal">
        <lane id=":211334531_0_0" index="0" disallow="tram rail_urban rail rail_electric rail_fast ship container cable_car subway aircraft wheelchair scooter drone" speed="13.89" length="12.58" shape="614.81,415.31 611.91,412.88 610.15,410.96 608.72,408.74 606.79,405.45"/>
        <lane id=":211334531_0_1" index="1" disallow="tram rail_urban rail rail_electric rail_fast ship container cable_car subway aircraft wheelchair scooter drone" speed="13.89" length="12.58" shape="617.31,413.20 614.52,410.88 612.80,409.06 611.40,406.96 609.54,403.81"/>
    </edge>
    <edge id=":211334531_2" function="internal">
        <lane id=":211334531_2_0" index="0" disallow="pedestrian bicycle tram rail_urban rail rail_electric rail_fast ship container cable_car subway aircraft wheelchair scooter drone" speed="13.89" length="11.91" shape="607.70,415.99 607.40,412.82 607.79,410.50 607.90,408.29 606.79,405.45"/>
        <lane id=":211334531_2_1" index="1" disallow="pedestrian bicycle tram rail_urban rail rail_electric rail_fast ship container cable_car subway aircraft wheelchair scooter drone" speed="13.89" length="11.91" shape="611.13,416.53 610.69,412.69 610.99,409.90 610.96,407.25 609.54,403.81"/>
    </edge>
    <edge id=":211342668_0" function="internal">
        <lane id=":211342668_0_0" index="0" disallow="pedestrian bicycle tram rail_urban rail rail_electric rail_fast ship container cable_car subway aircraft wheelchair scooter drone" speed="13.89" length="8.00" shape="636.92,472.62 635.94,474.78 635.31,476.29 634.86,477.85 634.38,480.17"/>
    </edge>
    <edge id=":211342668_1" function="internal">
        <lane id=":211342668_1_0" index="0" disallow="pedestrian bicycle tram rail_urban rail rail_electric rail_fast ship container cable_car subway aircraft wheelchair scooter drone" speed="13.89" length="8.12" shape="633.55,471.82 632.98,474.15 632.40,475.70 631.81,477.25 631.24,479.58"/>
    </edge>
    <edge id=":211383595_0" function="internal">
        <lane id=":211383595_0_0" index="0" disallow="pedestrian bicycle tram rail_urban rail rail_electric rail_fast ship container cable_car subway aircraft wheelchair scooter drone" speed="13.89" length="9.53" shape="568.22,380.36 566.47,378.13 565.31,376.55 563.99,375.14 561.77,373.42"/>
    </edge>
    <edge id=":211383595_1" function="internal">
        <lane id=":211383595_1_0" index="0" disallow="pedestrian tram rail_urban rail rail_electric rail_fast ship container cable_car subway aircraft wheelchair scooter drone" speed="13.89" length="9.92" shape="570.62,377.74 568.40,375.85 567.12,374.26 565.84,372.67 563.60,370.79"/>
    </edge>
    <edge id=":211383599_0" function="internal">
        <lane id=":211383599_0_0" index="0" disallow="tram rail_urban rail rail_electric rail_fast ship container cable_car subway aircraft wheelchair scooter drone" speed="27.78" length="0.30" shape="396.59,275.50 396.31,275.35"/>
        <lane id=":211383599_0_1" index="1" disallow="tram rail_urban rail rail_electric rail_fast ship container cable_car subway aircraft wheelchair scooter drone" speed="27.78" length="0.30" shape="398.12,272.69 397.86,272.55"/>
        <lane id=":211383599_0_2" index="2" disallow="tram rail_urban rail rail_electric rail_fast ship container cable_car subway aircraft wheelchair scooter drone" speed="27.78" length="0.30" shape="399.65,269.88 399.41,269.75"/>
    </edge>
    <edge id=":211383600_0" function="internal">
        <lane id=":211383600_0_0" index="0" disallow="tram rail_urban rail rail_electric rail_fast ship container cable_car subway aircraft wheelchair scooter drone" speed="6.01" length="8.23" shape="260.72,199.31 258.39,198.34 256.47,198.27 254.95,199.10 253.84,200.83"/>
    </edge>
    <edge id=":211383600_1" function="internal">
        <lane id=":211383600_1_0" index="0" disallow="tram rail_urban rail rail_electric rail_fast ship container cable_car subway aircraft wheelchair scooter drone" speed="27.78" length="11.16" shape="260.72,199.31 250.99,193.75"/>
        <lane id=":211383600_1_1" index="1" disallow="tram rail_urban rail rail_electric rail_fast ship container cable_car subway aircraft wheelchair scooter drone" speed="27.78" length="11.16" shape="262.28,196.52 252.60,190.99"/>