<?xml version="1.0" encoding="UTF-8"?>

<!-- generated on 2025-03-24 09:57:03 by Eclipse SUMO netedit Version 1.22.0
<neteditConfiguration xmlns:xsi="http://www.w3.org/2001/XMLSchema-instance" xsi:noNamespaceSchemaLocation="http://sumo.dlr.de/xsd/neteditConfiguration.xsd">

    <input>
        <sumo-net-file value="/home/pdf/software/mosaic/scenarios/g3app/sumo/g3app.net.xml"/>
    </input>

    <output>
        <output-file value="/home/pdf/software/mosaic/scenarios/g3app/sumo/g3app.net.xml"/>
    </output>

    <processing>
        <offset.disable-normalization value="true"/>
    </processing>

    <junctions>
        <no-turnarounds value="true"/>
    </junctions>

    <netedit>
        <new-network value="false"/>
    </netedit>

</neteditConfiguration>
-->

<net version="1.20" junctionCornerDetail="5" limitTurnSpeed="5.50" xmlns:xsi="http://www.w3.org/2001/XMLSchema-instance" xsi:noNamespaceSchemaLocation="http://sumo.dlr.de/xsd/net_file.xsd">

    <location netOffset="-550213.33,-4600916.94" convBoundary="-400.00,0.00,600.00,0.00" origBoundary="550213.335000,4600916.937000,550213.335000,4600916.937000" projParameter="+proj=utm +zone=29 +ellps=WGS84 +datum=WGS84 +units=m +no_defs"/>

    <edge id=":J1_0" function="internal">
        <lane id=":J1_0_0" index="0" speed="13.89" length="0.10" shape="100.00,4.80 100.00,4.80"/>
        <lane id=":J1_0_1" index="1" speed="13.89" length="0.10" shape="100.00,1.60 100.00,1.60"/>
    </edge>
    <edge id=":J1_2" function="internal">
        <lane id=":J1_2_0" index="0" speed="13.89" length="0.10" shape="100.00,-4.80 100.00,-4.80"/>
        <lane id=":J1_2_1" index="1" speed="13.89" length="0.10" shape="100.00,-1.60 100.00,-1.60"/>
    </edge>

    <edge id="-E0" from="J1" to="J0" priority="-1">
        <lane id="-E0_0" index="0" speed="13.89" length="500.00" shape="100.00,4.80 -400.00,4.80"/>
        <lane id="-E0_1" index="1" speed="13.89" length="500.00" shape="100.00,1.60 -400.00,1.60"/>
    </edge>
    <edge id="-E1" from="J2" to="J1" priority="-1">
        <lane id="-E1_0" index="0" speed="13.89" length="500.00" shape="600.00,4.80 100.00,4.80"/>
        <lane id="-E1_1" index="1" speed="13.89" length="500.00" shape="600.00,1.60 100.00,1.60"/>
    </edge>
    <edge id="E0" from="J0" to="J1" priority="-1">
        <lane id="E0_0" index="0" speed="13.89" length="500.00" shape="-400.00,-4.80 100.00,-4.80"/>
        <lane id="E0_1" index="1" speed="13.89" length="500.00" shape="-400.00,-1.60 100.00,-1.60"/>
    </edge>
    <edge id="E1" from="J1" to="J2" priority="-1">
        <lane id="E1_0" index="0" speed="13.89" length="500.00" shape="100.00,-4.80 600.00,-4.80"/>
        <lane id="E1_1" index="1" speed="13.89" length="500.00" shape="100.00,-1.60 600.00,-1.60"/>
    </edge>

    <tlLogic id="J1" type="static" programID="0" offset="0">
        <phase duration="82" state="GGGG"/>
        <phase duration="3"  state="ggyy"/>
        <phase duration="5"  state="ggrr"/>
    </tlLogic>

    <junction id="J0" type="dead_end" x="-400.00" y="0.00" incLanes="-E0_0 -E0_1" intLanes="" shape="-400.00,0.00 -400.00,6.40 -400.00,0.00"/>
    <junction id="J1" type="traffic_light" x="100.00" y="0.00" incLanes="-E1_0 -E1_1 E0_0 E0_1" intLanes=":J1_0_0 :J1_0_1 :J1_2_0 :J1_2_1" shape="100.00,6.40 100.00,-6.40 100.00,6.40">
        <request index="0" response="0000" foes="0000" cont="0"/>
        <request index="1" response="0000" foes="0000" cont="0"/>
        <request index="2" response="0000" foes="0000" cont="0"/>
        <request index="3" response="0000" foes="0000" cont="0"/>
    </junction>
    <junction id="J2" type="dead_end" x="600.00" y="0.00" incLanes="E1_0 E1_1" intLanes="" shape="600.00,0.00 600.00,-6.40 600.00,0.00"/>

    <connection from="-E1" to="-E0" fromLane="0" toLane="0" via=":J1_0_0" tl="J1" linkIndex="0" dir="s" state="O"/>
    <connection from="-E1" to="-E0" fromLane="1" toLane="1" via=":J1_0_1" tl="J1" linkIndex="1" dir="s" state="O"/>
    <connection from="E0" to="E1" fromLane="0" toLane="0" via=":J1_2_0" tl="J1" linkIndex="2" dir="s" state="O"/>
    <connection from="E0" to="E1" fromLane="1" toLane="1" via=":J1_2_1" tl="J1" linkIndex="3" dir="s" state="O"/>

    <connection from=":J1_0" to="-E0" fromLane="0" toLane="0" dir="s" state="M"/>
    <connection from=":J1_0" to="-E0" fromLane="1" toLane="1" dir="s" state="M"/>
    <connection from=":J1_2" to="E1" fromLane="0" toLane="0" dir="s" state="M"/>
    <connection from=":J1_2" to="E1" fromLane="1" toLane="1" dir="s" state="M"/>

</net>
