<?xml version="1.0" encoding="UTF-8"?>

<!-- generated on 2025-03-24 09:58:35 by Eclipse SUMO sumo Version 1.22.0
-->

<sumoConfiguration xmlns:xsi="http://www.w3.org/2001/XMLSchema-instance" xsi:noNamespaceSchemaLocation="http://sumo.dlr.de/xsd/sumoConfiguration.xsd">

    <input>
        <net-file value="g3app.net.xml"/>
        <route-files value="g3app.rou.xml"/>
        <gui-settings-file value="viewsettings.xml"/>
    </input>

</sumoConfiguration>
