<?xml version='1.0' encoding='UTF-8'?>
<routes xmlns:xsi="http://www.w3.org/2001/XMLSchema-instance" xsi:noNamespaceSchemaLocation="http://sumo.dlr.de/xsd/routes_file.xsd">
  <route id="r_0" edges="22576074#2 317648279#0 317648279#1 317648279#2 317648269 317648286 21116452 317815526#0 317815526#1 317815526#2 244066354 470087035#0 470087035#1 20031590#0 20031590#1 1067754331 162735492 1067754332 470087061 20031629#0 20031629#1 235834890#4 235834896 1078551360#0 470087055#0 470087055#1 470087044 162683963#0 162683963#1 162683963#2 162683963#3 162683963#4 162683963#5 162683963#6 162683963#7 20460432#0 20460432#1 20460432#2 -50952691#2 -50952691#1 -50952691#0 -37527602#2"/>
  <route id="r_1" edges="22576074#2 317648279#0 317648279#1 317648279#2 317648269 317648286 21116452 317815526#0 317815526#1 317815526#2 244066354 470087035#0 470087035#1 20031590#0 20031590#1 1067754331 162735492 1067754332 470087061 20031629#0 20031629#1 235834890#4 235834896 1078551360#0 470087055#0 470087055#1 470087044 162683963#0 162683963#1 162683963#2 162683963#3 162683963#4 162683963#5 162683963#6 162683963#7 20460432#0 20460432#1 20460432#2 20460432#3 20460432#4 20027261 1069311791 1069311792#0 1069311792#1 262578339 21302374#0 -310236515 -310236517 -37527522#5 -37527522#4 -37527522#3 484506694 1266817651 37527602#0 37527602#1"/>
</routes>
